/*--------------------------------*- C++ -*----------------------------------*\
  =========                 |
  \\      /  F ield         | OpenFOAM: The Open Source CFD Toolbox
   \\    /   O peration     | Website:  https://openfoam.org
    \\  /    A nd           | Version:  7
     \\/     M anipulation  |
\*---------------------------------------------------------------------------*/
FoamFile
{
    version     2.0;
    format      ascii;
    class       dictionary;
    object      average;
}
// * * * * * * * * * * * * * * * * * * * * * * * * * * * * * * * * * * * * * //
type            volFieldValue;
libs            ("libfieldFunctionObjects.so");

log             true;
writeControl    writeTime;
writeFields     true;

regionType      cellZone; // Create your cellZone 
name            zoneName;       // and set its name
operation       volAverage; //sum or others

fields
(
    p // List of fields to operate on
);

